@<TRIPOS>MOLECULE
N3I
   97    99     1     0     0
SMALL
bcc


@<TRIPOS>ATOM
      1 C4         -10.4250     3.4200    72.4470 cc         1 02J      -0.313600
      2 C5          -9.9240     2.8570    73.6420 cd         1 02J       1.259000
      3 C6          -9.3450     1.4580    73.8060 c3         1 02J      -0.140400
      4 O1         -10.0480     3.7550    74.5750 os         1 02J      -0.110100
      5 N2         -10.5850     4.8610    74.1140 nd         1 02J      -0.327300
      6 C3         -10.8480     4.7380    72.8100 cc         1 02J       0.263800
      7 C41        -11.4750     5.7980    71.8910 c          1 02J       0.598600
      8 O42        -11.0620     5.9430    70.7930 o          1 02J      -0.599100
      9 H6B        -10.0170     0.8000    73.5680 hc         1 02J       0.068700
     10 H6A         -8.5740     1.3570    73.2260 hc         1 02J       0.068700
     11 H6          -9.0750     1.3250    74.7280 hc         1 02J       0.068700
     12 H4         -10.4720     3.0040    71.5720 ha         1 02J       0.196000
     13 N          -12.5830     6.6250    72.3740 n          2 ALA      -0.539900
     14 CA         -13.1660     7.6250    71.4950 c3         2 ALA       0.037700
     15 C          -12.1150     8.7500    71.2410 c          2 ALA       0.637100
     16 O          -11.4660     9.1590    72.1250 o          2 ALA      -0.609100
     17 CB         -14.3970     8.2180    72.1320 c3         2 ALA      -0.108100
     18 H3         -13.1770     5.9790    72.5240 hn         2 ALA       0.341500
     19 HA         -13.4170     7.2110    70.6550 h1         2 ALA       0.102700
     20 HB1        -14.7790     8.8840    71.5390 hc         2 ALA       0.055367
     21 HB2        -15.0480     7.5170    72.2930 hc         2 ALA       0.055367
     22 HB3        -14.1570     8.6350    72.9740 hc         2 ALA       0.055367
     23 N          -11.9430     9.2810    69.9110 n          3 VAL      -0.550900
     24 CA         -10.9550    10.3360    69.6660 c3         3 VAL       0.043700
     25 C          -11.6630    11.6060    69.2730 c          3 VAL       0.631100
     26 O          -12.3810    11.6170    68.3280 o          3 VAL      -0.614100
     27 CB         -10.0040     9.8950    68.5150 c3         3 VAL      -0.073700
     28 CG1         -9.1300    11.0860    68.0120 c3         3 VAL      -0.098600
     29 CG2         -9.1160     8.6870    68.9550 c3         3 VAL      -0.098600
     30 H          -12.3850     9.0250    69.2190 hn         3 VAL       0.326500
     31 HA         -10.4390    10.4910    70.4730 h1         3 VAL       0.103700
     32 HB         -10.5550     9.6040    67.7710 hc         3 VAL       0.063700
     33 HG11        -8.5490    10.7820    67.2970 hc         3 VAL       0.043867
     34 HG12        -9.7060    11.7930    67.6820 hc         3 VAL       0.043867
     35 HG13        -8.5910    11.4240    68.7440 hc         3 VAL       0.043867
     36 HG21        -8.5330     8.4300    68.2230 hc         3 VAL       0.043867
     37 HG22        -8.5790     8.9420    69.7220 hc         3 VAL       0.043867
     38 HG23        -9.6840     7.9380    69.1940 hc         3 VAL       0.043867
     39 N          -11.4800    12.6780    70.0440 n          4 LEU      -0.528900
     40 CA         -12.1700    13.9630    69.7460 c3         4 LEU       0.028700
     41 C          -11.8040    14.4540    68.3410 c          4 LEU       0.634100
     42 O          -10.6060    14.4420    68.0360 o          4 LEU      -0.617100
     43 CB         -11.7950    14.9950    70.8110 c3         4 LEU      -0.078400
     44 CG         -12.5660    14.8760    72.1220 c3         4 LEU      -0.068700
     45 CD1        -12.4700    16.1620    72.9250 c3         4 LEU      -0.093600
     46 CD2        -14.0170    14.5140    71.8610 c3         4 LEU      -0.093600
     47 H          -10.9710    12.6950    70.7370 hn         4 LEU       0.320500
     48 HA         -13.1310    13.8290    69.7670 h1         4 LEU       0.101700
     49 HB2        -10.8470    14.9150    71.0000 hc         4 LEU       0.055700
     50 HB3        -11.9380    15.8830    70.4470 hc         4 LEU       0.055700
     51 HG         -12.1640    14.1640    72.6440 hc         4 LEU       0.065700
     52 HD11       -12.9660    16.0650    73.7530 hc         4 LEU       0.036200
     53 HD12       -11.5400    16.3490    73.1260 hc         4 LEU       0.036200
     54 HD13       -12.8430    16.8940    72.4090 hc         4 LEU       0.036200
     55 HD21       -14.4900    14.4430    72.7050 hc         4 LEU       0.036200
     56 HD22       -14.4300    15.2030    71.3170 hc         4 LEU       0.036200
     57 HD23       -14.0600    13.6650    71.3940 hc         4 LEU       0.036200
     58 C19        -11.8320    15.4910    65.8780 c3         5 PJE       0.118900
     59 C20        -12.4220    16.8900    65.6990 c2         5 PJE      -0.098200
     60 C21        -11.6670    17.9480    65.9020 ce         5 PJE      -0.198200
     61 C22        -10.2080    17.8200    66.3470 c          5 PJE       0.641300
     62 C25        -12.4370    14.5940    64.8060 c3         5 PJE      -0.079400
     63 C26        -11.8350    13.1990    64.8380 c3         5 PJE      -0.136700
     64 C27        -10.3680    13.2410    64.5720 c3         5 PJE      -0.100400
     65 C28        -10.1100    11.8920    63.8850 c3         5 PJE       0.093000
     66 N6         -11.3860    11.5310    63.2320 n          5 PJE      -0.586900
     67 C29        -12.4280    12.3060    63.7870 c          5 PJE       0.697500
     68 O8         -13.5590    12.2600    63.4950 o          5 PJE      -0.634500
     69 N5         -12.2820    14.9940    67.1230 n          5 PJE      -0.566900
     70 O7          -9.9430    17.7850    67.5720 o          5 PJE      -0.540000
     71 H9         -12.0250    12.8530    65.7240 hc         5 PJE       0.090700
     72 H8         -13.3970    14.5360    64.9350 hc         5 PJE       0.068700
     73 H7         -12.2920    14.9900    63.9320 hc         5 PJE       0.068700
     74 H4         -12.0440    18.8310    65.7660 ha         5 PJE       0.158000
     75 H2         -13.3500    16.9970    65.4370 ha         5 PJE       0.133000
     76 H14        -11.4790    10.9420    62.6120 hn         5 PJE       0.333500
     77 H13         -9.3930    11.9620    63.2360 h1         5 PJE       0.040200
     78 H12         -9.8440    11.2170    64.5290 h1         5 PJE       0.040200
     79 H11        -10.1270    13.9880    64.0020 hc         5 PJE       0.066700
     80 H10         -9.8560    13.3320    65.3910 hc         5 PJE       0.066700
     81 H1         -10.8640    15.5130    65.8260 h1         5 PJE       0.113700
     82 H15        -13.2820    14.9940    67.1230 hn         5 PJE       0.315500
     83 C           -7.9010    17.6490    66.6960 c3         6 010       0.181700
     84 O           -8.9110    17.8490    65.7030 os         6 010      -0.441900
     85 C1          -5.8100    18.9970    67.2590 ca         6 010      -0.107500
     86 C2          -5.1380    20.2050    67.4390 ca         6 010      -0.135500
     87 C3          -5.8150    21.4140    67.2570 ca         6 010      -0.118000
     88 C4          -7.1560    21.4060    66.8980 ca         6 010      -0.135500
     89 C5          -7.8310    20.2010    66.7150 ca         6 010      -0.107500
     90 C6          -7.1530    18.9940    66.8960 ca         6 010      -0.124300
     91 HA          -8.2990    17.3550    67.5300 h1         6 010       0.072700
     92 H5          -8.7680    20.2010    66.4630 ha         6 010       0.141000
     93 H4          -7.6260    22.2450    66.7740 ha         6 010       0.133000
     94 H3          -5.3490    22.2560    67.3810 ha         6 010       0.132000
     95 H2          -4.2010    20.2060    67.6900 ha         6 010       0.133000
     96 H1          -5.3410    18.1580    67.3870 ha         6 010       0.141000
     97 H           -7.2830    16.9550    66.4170 h1         6 010       0.072700
@<TRIPOS>BOND
     1     1     2 2   
     2     1     6 1   
     3     1    12 1   
     4     2     3 1   
     5     2     4 1   
     6     3     9 1   
     7     3    10 1   
     8     3    11 1   
     9     4     5 1   
    10     5     6 2   
    11     6     7 1   
    12     7     8 2   
    13     7    13 1   
    14    13    14 1   
    15    13    18 1   
    16    14    15 1   
    17    14    17 1   
    18    14    19 1   
    19    15    16 2   
    20    15    23 1   
    21    17    20 1   
    22    17    21 1   
    23    17    22 1   
    24    23    24 1   
    25    23    30 1   
    26    24    25 1   
    27    24    27 1   
    28    24    31 1   
    29    25    26 2   
    30    25    39 1   
    31    27    28 1   
    32    27    29 1   
    33    27    32 1   
    34    28    33 1   
    35    28    34 1   
    36    28    35 1   
    37    29    36 1   
    38    29    37 1   
    39    29    38 1   
    40    39    40 1   
    41    39    47 1   
    42    40    41 1   
    43    40    43 1   
    44    40    48 1   
    45    41    42 2   
    46    41    69 1   
    47    43    44 1   
    48    43    49 1   
    49    43    50 1   
    50    44    45 1   
    51    44    46 1   
    52    44    51 1   
    53    45    52 1   
    54    45    53 1   
    55    45    54 1   
    56    46    55 1   
    57    46    56 1   
    58    46    57 1   
    59    58    59 1   
    60    58    62 1   
    61    58    69 1   
    62    58    81 1   
    63    59    60 2   
    64    59    75 1   
    65    60    61 1   
    66    60    74 1   
    67    61    70 2   
    68    61    84 1   
    69    62    63 1   
    70    62    72 1   
    71    62    73 1   
    72    63    64 1   
    73    63    67 1   
    74    63    71 1   
    75    64    65 1   
    76    64    79 1   
    77    64    80 1   
    78    65    66 1   
    79    65    77 1   
    80    65    78 1   
    81    66    67 1   
    82    66    76 1   
    83    67    68 2   
    84    69    82 1   
    85    83    84 1   
    86    83    90 1   
    87    83    91 1   
    88    83    97 1   
    89    85    86 ar  
    90    85    90 ar  
    91    85    96 1   
    92    86    87 ar  
    93    86    95 1   
    94    87    88 ar  
    95    87    94 1   
    96    88    89 ar  
    97    88    93 1   
    98    89    90 ar  
    99    89    92 1   
@<TRIPOS>SUBSTRUCTURE
     1 02J         1 TEMP              0 ****  ****    0 ROOT
