@<TRIPOS>MOLECULE
NAD
   71    75     1     0     0
SMALL
bcc


@<TRIPOS>ATOM
      1 PA          82.3510    77.9120    42.1910 p5         1 NAD       1.606800
      2 O1A         82.4070    79.3960    42.2750 o          1 NAD      -0.871500
      3 O2A         82.8520    77.3040    40.7890 o          1 NAD      -0.871500
      4 O5B         83.3970    77.2000    43.2090 os         1 NAD      -0.591200
      5 C5B         83.6800    77.9570    44.4110 c3         1 NAD       0.181400
      6 C4B         84.2170    77.1160    45.5900 c3         1 NAD       0.114100
      7 O4B         83.6580    77.5980    46.8370 os         1 NAD      -0.441600
      8 C3B         83.7220    75.6460    45.4670 c3         1 NAD       0.101100
      9 O3B         84.8340    74.7470    45.5770 oh         1 NAD      -0.625800
     10 C2B         82.7240    75.4770    46.6290 c3         1 NAD       0.104100
     11 O2B         82.6650    74.1420    47.1440 oh         1 NAD      -0.630800
     12 C1B         83.2250    76.4940    47.6630 c3         1 NAD       0.238800
     13 N9A         82.2110    76.9180    48.6400 na         1 NAD      -0.255000
     14 C8A         81.6010    78.1510    48.8050 cc         1 NAD       0.460700
     15 N7A         80.6080    78.2180    49.7680 nd         1 NAD      -0.597100
     16 C5A         80.6340    76.9340    50.2080 ca         1 NAD      -0.198200
     17 C6A         79.8340    76.3590    51.2180 ca         1 NAD       0.690200
     18 N6A         78.8610    77.0620    51.9170 nh         1 NAD      -0.928500
     19 N1A         79.9870    75.0630    51.5500 nb         1 NAD      -0.800000
     20 C2A         80.9280    74.3630    50.8750 ca         1 NAD       0.640900
     21 N3A         81.7340    74.8290    49.8940 nb         1 NAD      -0.709000
     22 C4A         81.5720    76.1270    49.5680 ca         1 NAD       0.442800
     23 O3          80.8610    77.2870    42.2780 os         1 NAD      -0.821800
     24 PN          80.0120    77.2920    43.6550 p5         1 NAD       1.619800
     25 O1N         80.2220    76.0970    44.5140 o          1 NAD      -0.880500
     26 O2N         78.5180    77.4420    43.0790 o          1 NAD      -0.880500
     27 O5D         80.1490    78.6850    44.4830 os         1 NAD      -0.613200
     28 C5D         79.9630    78.5550    45.9160 c3         1 NAD       0.166400
     29 C4D         78.5680    78.9680    46.4340 c3         1 NAD       0.084100
     30 O4D         77.7690    79.5240    45.3760 os         1 NAD      -0.424600
     31 C3D         77.7650    77.7160    46.8720 c3         1 NAD       0.058100
     32 O3D         77.8480    77.5310    48.2910 oh         1 NAD      -0.589800
     33 C2D         76.3210    77.9310    46.3460 c3         1 NAD       0.063100
     34 O2D         75.3330    77.9150    47.3850 oh         1 NAD      -0.624800
     35 C1D         76.3680    79.3080    45.6540 c3         1 NAD       0.431300
     36 N1N         75.5750    79.3850    44.4090 nh         1 NAD      -0.555200
     37 C2N         76.2230    79.6890    43.2020 c2         1 NAD       0.110000
     38 C3N         75.6260    79.5030    41.9980 ce         1 NAD      -0.274400
     39 C7N         76.3770    79.8210    40.7400 c          1 NAD       0.671300
     40 O7N         77.5800    79.9990    40.7190 o          1 NAD      -0.706100
     41 N7N         75.6500    79.8960    39.5690 n          1 NAD      -0.630000
     42 C4N         74.1870    78.9730    41.8870 c3         1 NAD       0.043000
     43 C5N         73.5560    78.7910    43.2550 c2         1 NAD      -0.261200
     44 C6N         74.2310    79.0010    44.3910 c2         1 NAD       0.051000
     45 H1          76.9520    77.6170    48.6570 ho         1 NAD       0.388000
     46 H2          84.6430    74.1430    46.3190 ho         1 NAD       0.414000
     47 H3          75.4950    77.1290    47.9340 ho         1 NAD       0.421000
     48 H4          82.2740    74.1760    48.0320 ho         1 NAD       0.470000
     49 H5          76.1320    80.1170    38.7070 hn         1 NAD       0.333000
     50 H6          74.6500    79.7300    39.5750 hn         1 NAD       0.333000
     51 H7          78.0040    77.3260    51.4510 hn         1 NAD       0.406300
     52 H8          79.1150    77.5060    52.7900 hn         1 NAD       0.406300
     53 H9          80.2610    77.6640    46.2240 h1         1 NAD       0.064200
     54 H10         84.2230    78.7550    44.1990 h1         1 NAD       0.032200
     55 H11         80.7150    78.9730    46.4020 h1         1 NAD       0.064200
     56 H12         82.9160    78.5410    44.6420 h1         1 NAD       0.032200
     57 H13         81.8620    78.9470    48.2590 h5         1 NAD       0.173800
     58 H14         83.9520    76.1500    48.2560 h2         1 NAD       0.100700
     59 H15         75.9880    80.0420    46.2160 h2         1 NAD       0.065700
     60 H16         81.0390    73.4010    51.1270 h5         1 NAD       0.028100
     61 H17         73.7220    78.8680    45.2410 h4         1 NAD       0.130000
     62 H18         78.6970    79.6600    47.1440 h1         1 NAD       0.068700
     63 H19         85.2120    77.2070    45.6240 h1         1 NAD       0.067700
     64 H20         78.1440    76.8440    46.5620 h1         1 NAD       0.185700
     65 H21         83.3350    75.3900    44.5800 h1         1 NAD       0.113700
     66 H22         77.1530    80.0550    43.1990 h4         1 NAD       0.215000
     67 H23         75.9910    77.1790    45.7730 h1         1 NAD       0.084700
     68 H24         81.7630    75.5760    46.3700 h1         1 NAD       0.113700
     69 H25         73.6180    79.4880    41.2620 hc         1 NAD       0.037700
     70 H26         74.0980    78.1740    41.3080 hc         1 NAD       0.037700
     71 H27         72.6110    78.5070    43.4220 ha         1 NAD       0.112000
@<TRIPOS>BOND
     1     1     2 1   
     2     1     3 1   
     3     1     4 1   
     4     1    23 1   
     5     4     5 1   
     6     5     6 1   
     7     5    54 1   
     8     5    56 1   
     9     6     7 1   
    10     6     8 1   
    11     6    63 1   
    12     7    12 1   
    13     8     9 1   
    14     8    10 1   
    15     8    65 1   
    16     9    46 1   
    17    10    11 1   
    18    10    12 1   
    19    10    68 1   
    20    11    48 1   
    21    12    13 1   
    22    12    58 1   
    23    13    14 1   
    24    13    22 1   
    25    14    15 2   
    26    14    57 1   
    27    15    16 1   
    28    16    17 ar  
    29    16    22 ar  
    30    17    18 1   
    31    17    19 ar  
    32    18    51 1   
    33    18    52 1   
    34    19    20 ar  
    35    20    21 ar  
    36    20    60 1   
    37    21    22 ar  
    38    23    24 1   
    39    24    25 1   
    40    24    26 1   
    41    24    27 1   
    42    27    28 1   
    43    28    29 1   
    44    28    53 1   
    45    28    55 1   
    46    29    30 1   
    47    29    31 1   
    48    29    62 1   
    49    30    35 1   
    50    31    32 1   
    51    31    33 1   
    52    31    64 1   
    53    32    45 1   
    54    33    34 1   
    55    33    35 1   
    56    33    67 1   
    57    34    47 1   
    58    35    36 1   
    59    35    59 1   
    60    36    37 1   
    61    36    44 1   
    62    37    38 2   
    63    37    66 1   
    64    38    39 1   
    65    38    42 1   
    66    39    40 2   
    67    39    41 1   
    68    41    49 1   
    69    41    50 1   
    70    42    43 1   
    71    42    69 1   
    72    42    70 1   
    73    43    44 2   
    74    43    71 1   
    75    44    61 1   
@<TRIPOS>SUBSTRUCTURE
     1 NAD         1 TEMP              0 ****  ****    0 ROOT
